*B3505S (similar to 3500, 3501) vertical npn
.model B3505S NPN IS=5.65E-17 RB=465 RE=0.495 RC=41.5 CJE=0.555p
+CJC=0.155p CJS=0.205p BF=94.5 VAF=50.0 BR=0.720 VAR=4.40 VJE=0.960
+MJE=0.330 VJC=0.730 MJC=0.520 VJS=0.450 MJS=0.330 TF=39.0p TR=1.00n
